/*--------------------------------*- C++ -*----------------------------------*\
| =========                 |                                                 |
| \\      /  F ield         | OpenFOAM: The Open Source CFD Toolbox           |
|  \\    /   O peration     | Version:  1.5-dev                               |
|   \\  /    A nd           | Web:      http://www.OpenFOAM.org               |
|    \\/     M anipulation  |                                                 |
\*---------------------------------------------------------------------------*/
FoamFile
{
    version     2.0;
    format      ascii;
    class       dictionary;
    location    "system";
    object      controlDict;
}
// * * * * * * * * * * * * * * * * * * * * * * * * * * * * * * * * * * * * * //

startTime           0;

startFrom           latestTime;

endTime             35;

stopAt              endTime;

deltaT              0.1;

adjustTimeStep      no;

maxCo               0.8;

writeControl        timeStep;

writeInterval       5;

writeFormat         ascii;

writeCompression    uncompressed;

timeFormat          general;

timePrecision       11;

runTimeModifiable   yes;

// * * * * * * * * * * * * * * * * * * * * * * * * * * * * * * * * * * * * * //



